[General]
#debug-on-errors = true
sim-time-limit = 3000s
seed-0-mt = 5
network = inet.examples.adhoc.net80211_aodv.Net80211_aodv

cmdenv-express-mode = true
tkenv-plugin-path = ../../../etc/plugins

description = "Aodv Simple test"

*.playgroundSizeX = 700
*.playgroundSizeY = 700
*.numFixHosts = 3
*.numHosts = 4

# mobility
**.fixhost[0].mobility.x = 200
**.fixhost[0].mobility.y = 100

#**.host[*].mobilityType = "StaticGridMobility"

**.fixhost[1].mobility.x = 100
**.fixhost[1].mobility.y = 300

**.fixhost[2].mobility.x = 450
**.fixhost[2].mobility.y = 300
**.ip.forceBroadcast = false

#**.host[2].mobility.x = -1
#**.host[3].mobility.y = -1

[Config RectangleMobility]
**.host*.mobilityType = "RectangleMobility"
**.host*.mobility.x1 = 50
**.host*.mobility.y1 = 400
**.host*.mobility.x2 = 150
**.host*.mobility.y2 = 480

#**.host[1].mobility.x1 = 500
#**.host[1].mobility.y1 = 300
#**.host[1].mobility.x2 = 300
#**.host[1].mobility.y2 = 200

#**.host[2].mobility.x1 = 250
#**.host[2].mobility.y1 = 250
#**.host[2].mobility.x2 = 150
#**.host[2].mobility.y2 = 150

#**.host[3].mobility.x1 = 150
#**.host[3].mobility.y1 = 150
#**.host[3].mobility.x2 = 100
#**.host[3].mobility.y2 = 100

**.host[0].mobility.startPos = 0
**.host[1].mobility.startPos = 1
**.host[2].mobility.startPos = 2
**.host[3].mobility.startPos = 3

#**.host[2].mobility.startPos = 0
#**.host[3].mobility.startPos = 2.5
**.host[0].mobility.speed = 20mps
**.host[1].mobility.speed = -20mps
**.host[2].mobility.speed = 20mps
**.host[3].mobility.speed = -20mps
**.host*.mobility.updateInterval = 100ms

#**.host*.mobilityType = "inet.mobility.NullMobility"

# udp apps (on)
**.host[*].udpAppType = "UDPBasicBurst"
**.host[0].numUdpApps = 1

**.udpApp[0].destAddresses = "fixhost[0]"
**.udpApp[0].localPort = 1234
**.udpApp[0].destPort = 1234
**.udpApp[0].messageLength = 512B  # 
**.udpApp[0].messageFreq = 6s
**.udpApp[0].message_freq_jitter = uniform(-0.001s,0.001s)
**.udpApp[0].burstDuration = 0
**.udpApp[0].activeBurst=true
# **.udpApp[0].burstDuration = uniform(1s,4s,1)
# **.udpApp[0].time_off = uniform(20s,40s,1)
**.udpApp[0].time_off = 0s
**.udpApp[0].time_end = 0s
##**.udpApp[0].time_begin =uniform(0s,4s,1)
**.udpApp[0].time_begin = 10s
**.udpApp[0].limitDelay = 20s
**.udpApp[0].rand_generator = 0

**.fixhost[0].udpAppType = "UDPSink"
**.fixhost[0].numUdpApps = 1
**.fixhost[0].udpApp[0].localPort = 1234
**.fixhost[0].x=-1
**.c.y=-1

# tcp apps (off)
**.numTcpApps = 0
**.tcpAppType = "TelnetApp"

# ping app (host[0] pinged by others)
# ping app (off)
**.pingApp.interval = 10s
#**.pingApp.srcAddr = "host*"
*.fixhost[*].pingApp.destAddr = ""
*.host[*].pingApp.destAddr = "fixhost[1]"
#**.pingApp.destAddr = "fixhost[1]"
**.pingApp.startTime = uniform(1s,5s)
**.pingApp.count = 0
**.pingApp.startTime = 3s
**.pingApp.stopTime = 0
**.pingApp.printPing = true

 **.fixhost[1].numFramesToSend = 50
 **.fixhost[*].numFramesToSend = 0


# tcp settings
**.tcp.mss = 1024
**.tcp.advertisedWindow = 14336  # 14*mss
**.tcp.sendQueueClass = "TCPMsgBasedSendQueue"
**.tcp.receiveQueueClass = "TCPMsgBasedRcvQueue"
**.tcp.tcpAlgorithmClass = "TCPReno"
**.tcp.recordStats = true

# ip settings
**.ip.procDelay = 10us
# **.IPForward=false


######################################################################
# manet routing
**.manetrouting.manetmanager.routingProtocol = "AODV"
#######################################################

# nic settings
**.wlan.mgmt.frameCapacity = 10
**.wlan.mac.maxQueueSize = 14
**.wlan.mac.rtsThresholdBytes = 3000B
**.wlan.mac.bitrate = 54Mbps
**.wlan.mac.basicBitrate = 6Mbps  # 24Mbps
**.wlan.mac.retryLimit = 7
**.wlan.mac.cwMinData = 31
#**.wlan.mac.cwMinBroadcast = 31

# channel physical parameters
*.channelcontrol.pMax = 2.0mW

**.wlan.radio.transmitterPower=2.0mW
**.wlan.radio.bitrate=54Mbps 		
**.wlan.radio.sensitivity=-90dBm   	
**.wlan.radio.berTableFile="per_table_80211g_Trivellato.dat"

#**.broadCastDelay=uniform(0s,0.005s)
*.fixhost[1].pingApp.destAddr = "fixhost[0]"
*.fixhost[2].pingApp.destAddr = "fixhost[0]"

 #   //  parameters: AODVUU;
**.log_to_file = false
**.hello_jittering = true
**.optimized_hellos = true
**.expanding_ring_search = true
**.routingProtocol = "AODV"
**.local_repair = true
**.rreq_gratuitous = true
#**.debug = false
**.rt_log_interval = 0
**.unidir_hack = 0
**.internet_gw_mode = 0
**.receive_n_hellos = 1
**.ratelimit = 1000
**.llfeedback = false# //1000 
**.wait_on_reboot = 0
**.active_timeout = 6000 # // time in ms
**.internet_gw_address = "145.236.0.2"
