[General]
#debug-on-errors = true
sim-time-limit = 3000s
seed-0-mt = 5
network = inet.examples.adhoc.net80211_mesh.Net80211_mesh
num-rngs = 2

cmdenv-express-mode = true
tkenv-plugin-path = ../../../Etc/plugins
#tkenv-default-run=1

description = "Aodv Simple test"





**.vector-recording = false
*.playgroundSizeX = 1000
*.playgroundSizeY = 1000
*.numFixHosts = 3
*.numHosts=4
*.numBasic=4
#*.numBasic=10
**.debug = true
**.coreDebug = false
**.channelNumber = 0


# mobility
**.fixhost[0].mobility.x = 400
**.fixhost[0].mobility.y = 100

**.fixhost[1].mobility.x = 150
**.fixhost[1].mobility.y = 300

**.fixhost[2].mobility.x = 650
**.fixhost[2].mobility.y = 300

#**.host[*].mobility.x = -1
#**.host[*].mobility.y = -1

[Config RectangleMobility]
**.host*.mobilityType = "RectangleMobility"
**.host*.mobility.x1 = 50
**.host*.mobility.y1 = 400
**.host*.mobility.x2 = 250
**.host*.mobility.y2 = 700

**.host[0].mobility.startPos = 0
**.host[1].mobility.startPos = 2
**.host[2].mobility.startPos = 1
**.host[3].mobility.startPos = 3

**.host[0].mobility.speed = 150mps
**.host[1].mobility.speed = -20mps
**.host[2].mobility.speed = 60mps
**.host[3].mobility.speed = -120mps
**.host*.mobility.updateInterval = 100ms

**.basic*.mobilityType = "RectangleMobility"
**.basic*.mobility.x1 = 550
**.basic*.mobility.y1 = 400
**.basic*.mobility.x2 = 750
**.basic*.mobility.y2 = 700

**.basic[0].mobility.startPos = 0
**.basic[1].mobility.startPos = 2
**.basic[2].mobility.startPos = 1
**.basic[3].mobility.startPos = 3

**.basic[0].mobility.speed = 20mps
**.basic[1].mobility.speed = -150mps
**.basic[2].mobility.speed = 120mps
**.basic[3].mobility.speed = -60mps
**.host*.mobility.updateInterval = 100ms
**.basic*.mobility.updateInterval = 80ms

**.host*.mobilityType = "inet.mobility.NullMobility"
#**.host*.mobilityType = "inet.mobility.Ns2MotionMobility"
#**.host*.mobility.updateInterval = 0.1
**.host*.mobility.traceFile = "escen_v5_t500-1.txt"
**.host[0].mobility.nodeId = 0
**.host[1].mobility.nodeId = 1
**.host[2].mobility.nodeId = 2
**.host[3].mobility.nodeId = 3


#**.host*.mobilityType = "MassMobility"
#**.host*.mobility.changeInterval = truncnormal(2, 0.5)
#**.host*.mobility.changeAngleBy = normal(0, 30)
#**.host*.mobility.speed = truncnormal(20, 8)
#**.host*.mobility.updateInterval = 0.1

**.host*.mobility.changeInterval = truncnormal(5, 0.5)
**.host*.mobility.changeAngleBy = normal(0, 90)
#**.host*.mobility.speed = 2
**.host*.mobility.updateInterval = 0.1


# udp apps (on)
#**.host[*].udpAppType="UDPBasicApp"
#**.host[0].numUdpApps=1
#**.host[1].numUdpApps=1
#**.host[2].numUdpApps=1
#**.host[3].numUdpApps=1
#**.host[4].numUdpApps=1
#**.host[5].numUdpApps=1
#**.host[6].numUdpApps=1
#**.host[7].numUdpApps=1
#**.host[8].numUdpApps=1
#**.host[9].numUdpApps=1
#**.host[*].numUdpApps=0
#**.udpApp[0].dest_addresses="fixhost[0]"
#**.udpApp[0].local_port=1234
#**.udpApp[0].dest_port=1234
#**.udpApp[0].message_length=4096  # 32 bytes
#**.udpApp[0].message_freq=0.2

# udp apps (on)
**.host[*].udpAppType = "UDPBasicBurst"
**.host[*].numUdpApps = 1
**.host[*].udpApp[0].time_begin = uniform(20s,35s)
#**.host[*].udpApp[0].destAddresses = "random(inet.experimental.nodes.adhoc.MobileManetRoutingMesh)"
#**.host[0].udpApp[0].destAddresses = "host[4]"
**.host[*].udpApp[0].destAddresses = "fixhost[0]"


**.udpApp[0].localPort = 1234
**.udpApp[0].destPort = 1234
**.udpApp[0].messageLength = 512B  # 
#**.udpApp[0].messageFreq = 0.1s
**.udpApp[0].messageFreq = 0.2s
**.udpApp[0].message_freq_jitter = uniform(-0.001s,0.001s)
**.udpApp[0].burstDuration = 0s
#**.udpApp[0].activeBurst=true
**.udpApp[0].activeBurst=false # the same destination for all packets
# **.udpApp[0].burstDuration = uniform(1s,4s,1)
# **.udpApp[0].time_off = uniform(20s,40s,1)
**.udpApp[0].time_off = 0s
**.udpApp[0].time_end = 0s
##**.udpApp[0].time_begin =uniform(0s,4s,1)
# **.udpApp[0].time_begin = 10s
#**.udpApp[0].limitDelay = 20s
**.udpApp[0].limitDelay = 1000s
**.udpApp[0].rand_generator = 1



**.fixhost[0].udpAppType = "UDPSink"
**.fixhost[0].numUdpApps = 1
**.fixhost[0].udpApp[0].localPort = 1234

# tcp apps (off)
**.numTcpApps = 0
**.tcpAppType = "TelnetApp"

# ping app (host[0] pinged by others)
# ping app (off)
**.pingApp.destAddr = ""
**.pingApp.srcAddr = ""
**.pingApp.packetSize = 56B
**.pingApp.interval = 1s
**.pingApp.hopLimit = 32
**.pingApp.count = 0
**.pingApp.startTime = 1s
**.pingApp.stopTime = 0
**.pingApp.printPing = true

# tcp settings
**.tcp.mss = 1024
**.tcp.advertisedWindow = 14336  # 14*mss
**.tcp.sendQueueClass = "TCPMsgBasedSendQueue"
**.tcp.receiveQueueClass = "TCPMsgBasedRcvQueue"
**.tcp.tcpAlgorithmClass = "TCPReno"
**.tcp.recordStats = true

# ip settings
**.routingFile = ""
**.ip.procDelay = 10us
# **.IPForward=false

# ARP configuration
**.arp.retryTimeout = 1s
**.arp.retryCount = 3
**.arp.cacheTimeout = 100s
#**.networklayer.proxyARP = true  # Host's is hardwired "false"

# manet routing
**.manetrouting.manetmanager.routingProtocol = "AODV"
#**.routingProtocol.use-default=yes


# nic settings
**.wlan.mgmt.frameCapacity = 10
#**.wlan.mgmt.Willingness = 3
#**.wlan.mgmt.Hello_ival = 2
#**.wlan.mgmt.Tc_ival = 5
#**.wlan.mgmt.Mid_ival = 5
#**.wlan.mgmt.use_mac = false


**.wlan.useProactive = true

# nic settings

**.wlan.mac.address = "auto"
**.wlan.mac.maxQueueSize = 14
**.wlan.mac.rtsThresholdBytes = 3000B
**.wlan.mac.bitrate = 54Mbps
**.wlan.mac.basicBitrate = 6Mbps  # 24Mbps
**.wlan.mac.retryLimit = 7
**.wlan.mac.cwMinData = 31
**.wlan.mac.cwMinBroadcast = 31
**.wlan.mac.opMode = 2 # 802.11g
**.wlan.mac.slotTime = 9us #
**.wlan.mac.AIFSN = 2 #DIFS

# channel physical parameters
*.channelcontrol.carrierFrequency = 2.4GHz
*.channelcontrol.pMax = 2.0mW
*.channelcontrol.sat = -110dBm
*.channelcontrol.alpha = 2
*.channelcontrol.numChannels = 1


**.wlan.radio.transmitterPower=2.0mW
**.wlan.radio.pathLossAlpha=2
**.wlan.radio.snirThreshold = 4dB  # in dB
**.wlan.radio.bitrate=54Mbps 		
**.wlan.radio.thermalNoise=-110dBm
**.wlan.radio.sensitivity=-90dBm   	
**.wlan.radio.phyOpMode = 2 #1/2  802.11b/802.11g-only
**.wlan.radio.channelModel = 1 #1/2  rayleigh/awgn
**.wlan.radio.berTableFile="per_table_80211g_Trivellato.dat"




#**.use-default=yes

# proccesing delay in the routing protocol, avoid syncronization
**.broadCastDelay=uniform(0s,0.01s) # 10 mseconds 
**.uniCastDelay=uniform(0s,0.005s)

 #   //  parameters: AODVUU;
**.log_to_file = false
**.hello_jittering = true
**.optimized_hellos = true
**.expanding_ring_search = true
**.local_repair = true
**.rreq_gratuitous = true
#**.debug = false
**.rt_log_interval = 0
**.unidir_hack = 0
**.internet_gw_mode = 0
**.receive_n_hellos = 1
**.ratelimit = 1000
**.llfeedback = false# //1000 
**.wait_on_reboot = 0
**.active_timeout = 6000 # // time in ms
**.internet_gw_address = "0.0.0.0"

#  //  parameters: DSRUU;
**.PrintDebug = true
**.FlushLinkCache = true
**.PromiscOperation = false
**.UseNetworkLayerAck = false
**.BroadCastJitter = 20 # 20  ms
**.RouteCacheTimeout = 300 #300 seconds
**.SendBufferTimeout = 300# //30 s
**.SendBufferSize = -1
**.RequestTableSize = -1
**.RequestTableIds = -1
**.MaxRequestRexmt = -1 #// 16,
**.MaxRequestPeriod = 10 #//10 SECONDS
**.RequestPeriod = 500 #//500  MILLISECONDS
**.NonpropRequestTimeout = 30# //30  MILLISECONDS
**.RexmtBufferSize = -1 #//MAINT_BUF_MAX_LEN
**.MaintHoldoffTime = 250# //250 MILLISECONDS
**.MaxMaintRexmt = 2 # //2
**.TryPassiveAcks = true #//1
**.PassiveAckTimeout = 100# //100 MILLISECONDS
**.GratReplyHoldOff = 1 #, //1 SECONDS
**.MAX_SALVAGE_COUNT = 15 # //15
**.LifoSize = 20
**.PathCache = true
**.ETX_Active=false
**.ETXHelloInterval = 1 #, // Second
**.ETXWindowNumHello = 10
**.ETXRetryBeforeFail=-1
**.RREPDestinationOnly = false
**.RREQMaxVisit =5 # // Max Number that a RREQ can be processes by a node

#// Olsr
**.Willingness=3
**.Hello_ival=2
**.Tc_ival=5
**.Mid_ival=5
**.use_mac =0 #1
**.Mpr_algorithm =  1
**.routing_algorithm =   1
**.Link_quality = 2
**.Fish_eye = false
**.Tc_redundancy =    3
**.Link_delay = true #//default false
**.C_alpha=0.2

#// DSDV
**.manetroutingprotocol.hellomsgperiod_DSDV = 1 # //Period of DSDV hello message generation [seconds] 
**.manetroutingprotocol.manetroutingprotocol.timetolive_routing_entry = 5 # // ;[seconds]
**.netmask = "255.255.0.0" # //
**.MaxVariance_DSDV = 1 
**.RNGseed_DSDV = 0